Version 4
SHEET 1 880 680
WIRE 576 -32 576 -128
WIRE 16 -16 16 -48
WIRE 512 16 464 16
WIRE 96 112 -112 112
WIRE 224 128 160 128
WIRE 320 128 320 -128
WIRE 16 144 16 64
WIRE 96 144 16 144
WIRE 224 160 224 128
WIRE 272 160 224 160
WIRE 400 160 368 160
WIRE 272 208 224 208
WIRE 464 208 464 16
WIRE 464 208 384 208
WIRE 720 208 464 208
WIRE 64 224 16 224
WIRE 96 224 64 224
WIRE 224 240 224 208
WIRE 224 240 160 240
WIRE 96 256 -112 256
WIRE 16 320 16 224
WIRE 16 432 16 400
WIRE 64 432 64 224
FLAG 576 64 0
FLAG 16 -48 0
SYMBOL Comparators\\LT1017 128 128 R0
SYMATTR InstName U1
SYMBOL Comparators\\LT1017 128 240 R0
SYMATTR InstName U2
SYMBOL res 0 -32 R0
SYMATTR InstName R1
SYMATTR Value 5k
SYMBOL res 0 128 R0
SYMATTR InstName R2
SYMATTR Value 5k
SYMBOL res 0 304 R0
SYMATTR InstName R3
SYMATTR Value 5k
SYMBOL npn 512 -32 R0
SYMATTR InstName Q1
SYMBOL Digital\\srflop 320 112 R0
SYMATTR InstName A1
TEXT 8 456 Left 2 ;8
TEXT 8 -80 Left 2 ;1
TEXT -144 112 Left 2 ;2
TEXT -144 256 Left 2 ;6
TEXT 320 -136 Left 2 ;4
TEXT 544 -128 Left 2 ;7
TEXT 736 208 Left 2 ;3
TEXT 760 200 Left 2 ;out
TEXT 64 456 Left 2 ;5
TEXT 592 -136 Left 2 ;Discharge
TEXT 344 -136 Left 2 ;Reset
TEXT -176 88 Left 2 ;Trigger
TEXT -176 288 Left 2 ;Thresh
TEXT -8 488 Left 2 ;Vcc
TEXT 64 488 Left 2 ;cv
