Version 4
SHEET 1 1472 680
WIRE -240 -144 -240 -224
WIRE -240 -112 -240 -144
WIRE 576 -32 576 -128
WIRE 16 -16 16 -48
WIRE 512 16 464 16
WIRE -320 112 -688 112
WIRE -240 112 -240 -32
WIRE 96 112 -240 112
WIRE 224 128 160 128
WIRE 320 128 320 -128
WIRE 16 144 16 64
WIRE 96 144 16 144
WIRE -240 160 -240 112
WIRE 224 160 224 128
WIRE 272 160 224 160
WIRE 400 160 368 160
WIRE -320 208 -320 112
WIRE -304 208 -320 208
WIRE 272 208 224 208
WIRE 464 208 464 16
WIRE 464 208 384 208
WIRE 608 208 464 208
WIRE 720 208 672 208
WIRE 64 224 16 224
WIRE 96 224 64 224
WIRE 224 240 224 208
WIRE 224 240 160 240
WIRE 96 256 -112 256
WIRE 16 320 16 224
WIRE 784 368 784 304
WIRE -240 416 -240 256
WIRE 16 432 16 400
WIRE 64 432 64 224
WIRE 784 464 784 448
WIRE 784 496 784 464
WIRE 784 640 784 560
FLAG 576 64 0
FLAG 16 -48 0
FLAG 16 432 Vcc
FLAG 128 96 Vcc
FLAG 128 208 Vcc
FLAG 128 160 0
FLAG 128 272 0
FLAG -688 112 Vin
FLAG -112 256 Vcom
FLAG 576 -128 Vcom
FLAG 64 496 0
FLAG 320 -128 Vcc
FLAG 784 640 0
FLAG 784 304 Vcc
FLAG 784 464 Vcom
FLAG 944 288 0
FLAG 1120 288 0
FLAG 944 208 Vcc
FLAG 1120 208 Vin
FLAG -240 416 0
FLAG -240 -144 Vcc
SYMBOL Comparators\\LT1017 128 128 R0
SYMATTR InstName U1
SYMBOL Comparators\\LT1017 128 240 R0
SYMATTR InstName U2
SYMBOL res 0 -32 R0
SYMATTR InstName R1
SYMATTR Value 5k
SYMBOL res 0 128 R0
SYMATTR InstName R2
SYMATTR Value 5k
SYMBOL res 0 304 R0
SYMATTR InstName R3
SYMATTR Value 5k
SYMBOL npn 512 -32 R0
SYMATTR InstName Q1
SYMBOL Digital\\srflop 320 112 R0
SYMATTR InstName A1
SYMBOL Digital\\inv 608 144 R0
SYMATTR InstName A2
SYMBOL cap 48 432 R0
SYMATTR InstName C1
SYMATTR Value 0.01µ
SYMBOL res 768 352 R0
SYMATTR InstName R4
SYMATTR Value 5k
SYMBOL cap 768 496 R0
SYMATTR InstName C2
SYMATTR Value 2µ
SYMBOL voltage 944 192 R0
WINDOW 123 0 0 Left 0
WINDOW 39 0 0 Left 0
SYMATTR InstName V1
SYMATTR Value 5
SYMBOL voltage 1120 192 R0
WINDOW 123 0 0 Left 0
WINDOW 39 0 0 Left 0
SYMATTR InstName V2
SYMATTR Value PULSE(0 2 1m 0 0 1m 1 0)
SYMBOL npn -304 160 R0
SYMATTR InstName Q3
SYMBOL res -256 -128 R0
SYMATTR InstName R5
SYMATTR Value 10k
TEXT 8 456 Left 2 ;8
TEXT 8 -80 Left 2 ;1
TEXT -592 176 Left 2 ;2
TEXT -144 256 Left 2 ;6
TEXT 320 -136 Left 2 ;4
TEXT 544 -128 Left 2 ;7
TEXT 736 208 Left 2 ;3
TEXT 760 200 Left 2 ;out
TEXT 64 456 Left 2 ;5
TEXT 592 -136 Left 2 ;Discharge
TEXT 344 -136 Left 2 ;Reset
TEXT -664 264 Left 2 ;Trigger
TEXT -176 288 Left 2 ;Thresh
TEXT -8 488 Left 2 ;Vcc
TEXT -192 664 Left 2 !.tran 40m
