Version 4
SHEET 1 880 680
WIRE 224 -16 224 -64
WIRE 224 -16 -32 -16
WIRE 224 0 224 -16
WIRE -32 48 -32 -16
WIRE 224 112 224 80
WIRE 288 112 224 112
WIRE 432 112 352 112
WIRE 224 128 224 112
WIRE 224 128 128 128
WIRE -32 160 -32 128
WIRE -16 160 -32 160
WIRE -96 176 -128 176
WIRE -16 176 -16 160
WIRE -16 176 -32 176
WIRE 64 176 -16 176
WIRE 176 224 128 224
WIRE 176 240 176 224
WIRE -16 256 -16 176
FLAG 224 -144 0
FLAG -16 336 0
FLAG 176 320 0
FLAG -128 256 0
FLAG 432 112 0
SYMBOL npn 64 128 R0
SYMATTR InstName Q1
SYMBOL res -32 240 R0
SYMATTR InstName R1
SYMATTR Value 1k
SYMBOL res -48 32 R0
SYMATTR InstName R2
SYMATTR Value 1k
SYMBOL res 208 -16 R0
SYMATTR InstName R3
SYMATTR Value 1k
SYMBOL res 160 224 R0
SYMATTR InstName R4
SYMATTR Value 1k
SYMBOL voltage 224 -48 R180
WINDOW 0 24 96 Left 2
WINDOW 3 24 16 Left 2
WINDOW 123 0 0 Left 0
WINDOW 39 0 0 Left 0
SYMATTR InstName V1
SYMATTR Value 5
SYMBOL voltage -128 160 R0
WINDOW 123 0 0 Left 0
WINDOW 39 0 0 Left 0
SYMATTR InstName V2
SYMATTR Value SINE(0 10m 50)
SYMBOL cap -32 160 R90
WINDOW 0 0 32 VBottom 2
WINDOW 3 32 32 VTop 2
SYMATTR InstName C1
SYMATTR Value 1µ
SYMBOL cap 352 96 R90
WINDOW 0 0 32 VBottom 2
WINDOW 3 32 32 VTop 2
SYMATTR InstName C2
SYMATTR Value 1µ
TEXT -162 360 Left 2 !.tran 10
